LTspice 24.0.12 for Windows
Circuit: * C:\Users\1091560\OneDrive - Christ Church Grammar School\Computer Stuff\Desktop\folder\engineering studies\electromagneticMarbleMachine\simulation files\ltspice files\Draft1.asc
Start Time: Tue Jun 25 13:37:32 2024
solver = Normal
Maximum thread count: 12
tnom = 27
temp = 27
method = modified trap
Direct Newton iteration for .op point succeeded.
Total elapsed time: 0.107 seconds.

