LTspice 24.0.12 for Windows
Circuit: * C:\Users\1091560\OneDrive - Christ Church Grammar School\Computer Stuff\Desktop\folder\engineering studies\electromagneticMarbleMachine\simulation files\ltspice files\transistorTesting.asc
Start Time: Thu Aug 22 20:24:34 2024
Warning: Multiple definitions of model "2scr375p" Type: BJT
Warning: Multiple definitions of model "bc857b" Type: BJT
Warning: Multiple definitions of model "bc847c" Type: BJT
Warning: Multiple definitions of model "bc847b" Type: BJT
Error on line 3 : s1 0 n001 n003 n005 trig sw
	 Unknown parameter "sw"
solver = Normal
Maximum thread count: 12
tnom = 27
temp = 27
method = modified trap
WARNING: Node N005 is floating.

Direct Newton iteration for .op point succeeded.
Total elapsed time: 5.316 seconds.

